Version 4
SHEET 1 2744 932
WIRE -464 -672 -480 -672
WIRE -480 -592 -480 -672
WIRE -352 -592 -480 -592
WIRE -192 -592 -240 -592
WIRE -480 -544 -480 -592
WIRE -480 -368 -480 -464
WIRE -464 -160 -480 -160
WIRE 1232 -144 1200 -144
WIRE 2000 -144 1968 -144
WIRE 1008 -128 960 -128
WIRE 1776 -128 1728 -128
WIRE 464 -96 224 -96
WIRE -480 -80 -480 -160
WIRE -352 -80 -480 -80
WIRE -192 -80 -240 -80
WIRE 1232 -80 1200 -80
WIRE 2000 -80 1968 -80
WIRE -480 -32 -480 -80
WIRE 224 16 224 -96
WIRE -480 144 -480 48
WIRE 224 144 224 96
WIRE 464 240 224 240
WIRE -496 288 -512 288
WIRE 224 352 224 240
WIRE -512 368 -512 288
WIRE -384 368 -512 368
WIRE -224 368 -272 368
WIRE -512 416 -512 368
WIRE 224 512 224 432
WIRE -512 592 -512 496
WIRE 448 640 208 640
WIRE 208 752 208 640
WIRE 208 912 208 832
FLAG -480 144 0
FLAG -464 -160 b
IOPIN -464 -160 Out
FLAG -192 -80 /b
IOPIN -192 -80 Out
FLAG -512 592 0
FLAG -496 288 c
IOPIN -496 288 Out
FLAG -224 368 /c
IOPIN -224 368 Out
FLAG -480 -368 0
FLAG -464 -672 a
IOPIN -464 -672 Out
FLAG -192 -592 /a
IOPIN -192 -592 Out
FLAG 464 -96 clock
IOPIN 464 -96 Out
FLAG 464 240 VCC
IOPIN 464 240 Out
FLAG 224 144 0
FLAG 224 512 0
FLAG 960 -128 clock
IOPIN 960 -128 In
FLAG 1232 -144 Q0
IOPIN 1232 -144 Out
FLAG 1232 -80 /Q0
IOPIN 1232 -80 Out
FLAG 1728 -128 clock
IOPIN 1728 -128 In
FLAG 2000 -144 Q1
IOPIN 2000 -144 Out
FLAG 2000 -80 /Q1
IOPIN 2000 -80 Out
FLAG 448 640 E
IOPIN 448 640 Out
FLAG 208 912 0
SYMBOL 74HCxx\\74hc04.i -304 -128 R0
SYMATTR InstName U1
SYMBOL voltage -480 -48 R0
WINDOW 123 0 0 Left 0
WINDOW 39 0 0 Left 0
SYMATTR InstName V2
SYMATTR Value PULSE(0 5 0 1n 1n 1ms 4ms)
SYMBOL 74HCxx\\74hc04.i -336 320 R0
SYMATTR InstName U2
SYMBOL voltage -512 400 R0
WINDOW 123 0 0 Left 0
WINDOW 39 0 0 Left 0
SYMATTR InstName V3
SYMATTR Value PULSE(0 5 0 1n 1n 1ms 4ms)
SYMBOL 74HCxx\\74hc04.i -304 -640 R0
SYMATTR InstName U3
SYMBOL voltage -480 -560 R0
WINDOW 123 0 0 Left 0
WINDOW 39 0 0 Left 0
SYMATTR InstName V1
SYMATTR Value PULSE(0 5 0 1n 1n 1ms 4ms)
SYMBOL voltage 224 0 R0
WINDOW 123 0 0 Left 0
WINDOW 39 0 0 Left 0
SYMATTR InstName V4
SYMATTR Value PULSE(0 5 50u 1p 1p 0.5m 1m)
SYMBOL voltage 224 336 R0
WINDOW 123 0 0 Left 0
WINDOW 39 0 0 Left 0
SYMATTR InstName V5
SYMATTR Value 5V
SYMBOL 74HCxx\\74hc107.i 1104 -224 R0
SYMATTR InstName U5
SYMBOL 74HCxx\\74hc107.i 1872 -224 R0
SYMATTR InstName U4
SYMBOL voltage 208 736 R0
WINDOW 123 0 0 Left 0
WINDOW 39 0 0 Left 0
SYMATTR InstName V6
SYMATTR Value PWL(0 0 1m 0 2m 0 +1p 5 3m 5 +1p 0 4m 0)
TEXT -520 -344 Left 2 !.tran 20ms
TEXT -520 -320 Left 2 !.include 74hc.lib
