Version 4
SHEET 1 1340 680
WIRE -464 -672 -480 -672
WIRE -480 -592 -480 -672
WIRE -352 -592 -480 -592
WIRE -192 -592 -240 -592
WIRE -480 -544 -480 -592
WIRE -480 -368 -480 -464
WIRE 1184 -304 928 -304
WIRE 1024 -256 1024 -336
WIRE 1024 -224 1024 -256
WIRE 928 -176 928 -304
WIRE 1248 -176 1120 -176
WIRE -464 -160 -480 -160
WIRE 928 -144 720 -144
WIRE 1184 -112 1184 -304
WIRE 1184 -112 1120 -112
WIRE 464 -96 224 -96
WIRE -480 -80 -480 -160
WIRE -352 -80 -480 -80
WIRE -192 -80 -240 -80
WIRE -480 -32 -480 -80
WIRE 224 16 224 -96
WIRE 1024 48 1024 -32
WIRE -480 144 -480 48
WIRE 224 144 224 96
WIRE 464 240 224 240
WIRE -496 288 -512 288
WIRE 224 352 224 240
WIRE -512 368 -512 288
WIRE -384 368 -512 368
WIRE -224 368 -272 368
WIRE -512 416 -512 368
WIRE 224 480 224 432
WIRE -512 592 -512 496
FLAG -480 144 0
FLAG -464 -160 b
IOPIN -464 -160 Out
FLAG -192 -80 /b
IOPIN -192 -80 Out
FLAG -512 592 0
FLAG -496 288 c
IOPIN -496 288 Out
FLAG -224 368 /c
IOPIN -224 368 Out
FLAG -480 -368 0
FLAG -464 -672 a
IOPIN -464 -672 Out
FLAG -192 -592 /a
IOPIN -192 -592 Out
FLAG 464 -96 clock
IOPIN 464 -96 Out
FLAG 464 240 VCC
IOPIN 464 240 Out
FLAG 224 144 0
FLAG 224 480 0
FLAG 1024 -336 VCC
IOPIN 1024 -336 In
FLAG 720 -144 clock
IOPIN 720 -144 In
FLAG 1248 -176 Q2
IOPIN 1248 -176 Out
FLAG 1024 48 VCC
IOPIN 1024 48 In
SYMBOL 74HCxx\\74hc04.i -304 -128 R0
SYMATTR InstName U1
SYMBOL voltage -480 -48 R0
WINDOW 123 0 0 Left 0
WINDOW 39 0 0 Left 0
SYMATTR InstName V2
SYMATTR Value PULSE(0 5 0 1ns 1ns 1ms 4ms)
SYMBOL 74HCxx\\74hc04.i -336 320 R0
SYMATTR InstName U2
SYMBOL voltage -512 400 R0
WINDOW 123 0 0 Left 0
WINDOW 39 0 0 Left 0
SYMATTR InstName V3
SYMATTR Value PULSE(0 5 0 1n 1n 1ms 4ms)
SYMBOL 74HCxx\\74hc04.i -304 -640 R0
SYMATTR InstName U3
SYMBOL voltage -480 -560 R0
WINDOW 123 0 0 Left 0
WINDOW 39 0 0 Left 0
SYMATTR InstName V1
SYMATTR Value PULSE(0 5 0 1n 1n 1ms 4ms)
SYMBOL voltage 224 0 R0
WINDOW 123 0 0 Left 0
WINDOW 39 0 0 Left 0
SYMATTR InstName V4
SYMATTR Value PULSE(0 5 200us 1n 1n 100us 200us)
SYMBOL voltage 224 336 R0
WINDOW 123 0 0 Left 0
WINDOW 39 0 0 Left 0
SYMATTR InstName V5
SYMATTR Value 5V
SYMBOL 74HCxx\\74hc74 1024 -256 R0
SYMATTR InstName U6
TEXT -520 -344 Left 2 !.tran 20ms
TEXT -520 -320 Left 2 !.include 74hc.lib
