Version 4
SHEET 1 2908 680
WIRE -464 -672 -480 -672
WIRE -480 -592 -480 -672
WIRE -352 -592 -480 -592
WIRE -192 -592 -240 -592
WIRE -480 -544 -480 -592
WIRE -480 -368 -480 -464
WIRE 2208 -352 2192 -352
WIRE 2208 -304 2208 -320
WIRE 2208 -304 2144 -304
WIRE 928 -256 848 -256
WIRE 2320 -224 2320 -336
WIRE 2336 -224 2320 -224
WIRE 2320 -208 2320 -224
WIRE 2608 -208 2528 -208
WIRE 1680 -192 1552 -192
WIRE 2336 -192 2288 -192
WIRE 928 -176 928 -256
WIRE 1952 -176 1872 -176
WIRE -464 -160 -480 -160
WIRE 1200 -160 1120 -160
WIRE 1680 -160 1632 -160
WIRE 2336 -160 2304 -160
WIRE 928 -144 880 -144
WIRE 2608 -144 2528 -144
WIRE 1680 -128 1552 -128
WIRE 2336 -128 2288 -128
WIRE 1952 -112 1872 -112
WIRE 464 -96 224 -96
WIRE 1200 -96 1120 -96
WIRE 1680 -96 1632 -96
WIRE -480 -80 -480 -160
WIRE -352 -80 -480 -80
WIRE -192 -80 -240 -80
WIRE 928 -80 880 -80
WIRE 2192 -48 2176 -48
WIRE -480 -32 -480 -80
WIRE 2304 -32 2304 -160
WIRE 2192 0 2192 -16
WIRE 2192 0 2128 0
WIRE 224 16 224 -96
WIRE -480 144 -480 48
WIRE 224 144 224 96
WIRE 464 240 224 240
WIRE -496 288 -512 288
WIRE 224 352 224 240
WIRE -512 368 -512 288
WIRE -384 368 -512 368
WIRE -224 368 -272 368
WIRE -512 416 -512 368
WIRE 224 480 224 432
WIRE -512 592 -512 496
FLAG -480 144 0
FLAG -464 -160 b
IOPIN -464 -160 Out
FLAG -192 -80 /b
IOPIN -192 -80 Out
FLAG -512 592 0
FLAG -496 288 c
IOPIN -496 288 Out
FLAG -224 368 /c
IOPIN -224 368 Out
FLAG -480 -368 0
FLAG -464 -672 a
IOPIN -464 -672 Out
FLAG -192 -592 /a
IOPIN -192 -592 Out
FLAG 464 -96 clock
IOPIN 464 -96 Out
FLAG 464 240 VCC
IOPIN 464 240 Out
FLAG 224 144 0
FLAG 224 480 0
FLAG 880 -144 clock
IOPIN 880 -144 In
FLAG 880 -80 VCC
IOPIN 880 -80 In
FLAG 1200 -160 Q0
IOPIN 1200 -160 Out
FLAG 1200 -96 /Q0
IOPIN 1200 -96 Out
FLAG 1632 -160 clock
IOPIN 1632 -160 In
FLAG 1632 -96 VCC
IOPIN 1632 -96 In
FLAG 1952 -176 Q1
IOPIN 1952 -176 Out
FLAG 1952 -112 /Q1
IOPIN 1952 -112 Out
FLAG 2288 -192 clock
IOPIN 2288 -192 In
FLAG 2288 -128 VCC
IOPIN 2288 -128 In
FLAG 2608 -208 Q2
IOPIN 2608 -208 Out
FLAG 2608 -144 /Q2
IOPIN 2608 -144 Out
FLAG 848 -256 Q0
IOPIN 848 -256 In
FLAG 1552 -192 /Q1
IOPIN 1552 -192 In
FLAG 1552 -128 Q1
IOPIN 1552 -128 In
FLAG 2192 -352 Q1
IOPIN 2192 -352 In
FLAG 2144 -304 /Q2
IOPIN 2144 -304 In
FLAG 2176 -48 Q1
IOPIN 2176 -48 In
FLAG 2128 0 Q2
IOPIN 2128 0 In
SYMBOL 74HCxx\\74hc04.i -304 -128 R0
SYMATTR InstName U1
SYMBOL voltage -480 -48 R0
WINDOW 123 0 0 Left 0
WINDOW 39 0 0 Left 0
SYMATTR InstName V2
SYMATTR Value PULSE(0 5 0 1ns 1ns 1ms 4ms)
SYMBOL 74HCxx\\74hc04.i -336 320 R0
SYMATTR InstName U2
SYMBOL voltage -512 400 R0
WINDOW 123 0 0 Left 0
WINDOW 39 0 0 Left 0
SYMATTR InstName V3
SYMATTR Value PULSE(0 5 0 1n 1n 1ms 4ms)
SYMBOL 74HCxx\\74hc04.i -304 -640 R0
SYMATTR InstName U3
SYMBOL voltage -480 -560 R0
WINDOW 123 0 0 Left 0
WINDOW 39 0 0 Left 0
SYMATTR InstName V1
SYMATTR Value PULSE(0 5 0 1n 1n 1ms 4ms)
SYMBOL voltage 224 0 R0
WINDOW 123 0 0 Left 0
WINDOW 39 0 0 Left 0
SYMATTR InstName V4
SYMATTR Value PULSE(0 5 200us 1n 1n 100us 200us)
SYMBOL voltage 224 336 R0
WINDOW 123 0 0 Left 0
WINDOW 39 0 0 Left 0
SYMATTR InstName V5
SYMATTR Value 5V
SYMBOL 74HCxx\\74hc107.1 1024 -240 R0
SYMATTR InstName U4
SYMBOL 74HCxx\\74hc107.1 1776 -256 R0
SYMATTR InstName U5
SYMBOL 74HCxx\\74hc107.1 2432 -288 R0
SYMATTR InstName U6
SYMBOL 74HCxx\\74hc08.i 2256 -400 R0
SYMATTR InstName U7
SYMBOL 74HCxx\\74hc08.i 2240 -96 R0
SYMATTR InstName U8
TEXT -520 -344 Left 2 !.tran 20ms
TEXT -520 -320 Left 2 !.include 74hc.lib
