Version 4
SHEET 1 2908 680
WIRE -464 -672 -480 -672
WIRE 2144 -608 2144 -640
WIRE -480 -592 -480 -672
WIRE -352 -592 -480 -592
WIRE -192 -592 -240 -592
WIRE 2032 -592 1984 -592
WIRE 2256 -576 2256 -592
WIRE 2256 -576 2240 -576
WIRE 2032 -560 1984 -560
WIRE -480 -544 -480 -592
WIRE 2240 -496 2240 -576
WIRE 2032 -464 1984 -464
WIRE 2240 -464 2208 -464
WIRE 2208 -448 2208 -464
WIRE 2208 -448 2144 -448
WIRE 2032 -432 1984 -432
WIRE -480 -368 -480 -464
WIRE 1424 -368 1376 -368
WIRE 2032 -352 1984 -352
WIRE 1424 -336 1376 -336
WIRE 2160 -336 2144 -336
WIRE 2032 -320 1984 -320
WIRE 2352 -320 2352 -480
WIRE 2384 -320 2352 -320
WIRE 1184 -304 928 -304
WIRE 1536 -304 1536 -352
WIRE 1568 -304 1536 -304
WIRE 2528 -304 2496 -304
WIRE 2160 -288 2160 -336
WIRE 2384 -288 2160 -288
WIRE 1568 -272 1536 -272
WIRE 2624 -272 2624 -416
WIRE 1024 -256 1024 -336
WIRE 1424 -256 1376 -256
WIRE 1760 -256 1760 -400
WIRE 1536 -240 1536 -272
WIRE 1024 -224 1024 -256
WIRE 1424 -224 1376 -224
WIRE 1680 -208 1680 -288
WIRE 1680 -208 1664 -208
WIRE 2528 -192 2528 -304
WIRE 2800 -192 2720 -192
WIRE 928 -176 928 -304
WIRE 1248 -176 1120 -176
WIRE 1664 -176 1664 -208
WIRE 1680 -176 1680 -208
WIRE 1936 -176 1856 -176
WIRE -464 -160 -480 -160
WIRE 2528 -160 2464 -160
WIRE 928 -144 720 -144
WIRE 1664 -144 1600 -144
WIRE 2800 -128 2720 -128
WIRE 1184 -112 1184 -304
WIRE 1184 -112 1120 -112
WIRE 1232 -112 1184 -112
WIRE 1936 -112 1856 -112
WIRE 464 -96 224 -96
WIRE -480 -80 -480 -160
WIRE -352 -80 -480 -80
WIRE -192 -80 -240 -80
WIRE -480 -32 -480 -80
WIRE 224 16 224 -96
WIRE 1024 48 1024 -32
WIRE 2624 48 2624 -48
WIRE 1760 64 1760 -32
WIRE -480 144 -480 48
WIRE 224 144 224 96
WIRE 464 240 224 240
WIRE -496 288 -512 288
WIRE 224 352 224 240
WIRE -512 368 -512 288
WIRE -384 368 -512 368
WIRE -224 368 -272 368
WIRE -512 416 -512 368
WIRE 224 480 224 432
WIRE -512 592 -512 496
FLAG -480 144 0
FLAG -464 -160 b
IOPIN -464 -160 Out
FLAG -192 -80 /b
IOPIN -192 -80 Out
FLAG -512 592 0
FLAG -496 288 c
IOPIN -496 288 Out
FLAG -224 368 /c
IOPIN -224 368 Out
FLAG -480 -368 0
FLAG -464 -672 a
IOPIN -464 -672 Out
FLAG -192 -592 /a
IOPIN -192 -592 Out
FLAG 464 -96 clock
IOPIN 464 -96 Out
FLAG 464 240 VCC
IOPIN 464 240 Out
FLAG 224 144 0
FLAG 224 480 0
FLAG 1024 -336 VCC
IOPIN 1024 -336 In
FLAG 720 -144 clock
IOPIN 720 -144 In
FLAG 1248 -176 Q0
IOPIN 1248 -176 Out
FLAG 1024 48 VCC
IOPIN 1024 48 In
FLAG 1760 64 VCC
IOPIN 1760 64 In
FLAG 1760 -400 VCC
IOPIN 1760 -400 In
FLAG 1936 -176 Q1
IOPIN 1936 -176 Out
FLAG 1936 -112 NQ1
IOPIN 1936 -112 Out
FLAG 1232 -112 NQ0
IOPIN 1232 -112 Out
FLAG 2624 48 VCC
IOPIN 2624 48 In
FLAG 2624 -416 VCC
IOPIN 2624 -416 In
FLAG 2800 -192 Q2
IOPIN 2800 -192 Out
FLAG 2800 -128 NQ2
IOPIN 2800 -128 Out
FLAG 1376 -368 NQ0
IOPIN 1376 -368 In
FLAG 1376 -336 Q1
IOPIN 1376 -336 In
FLAG 1376 -256 NQ1
IOPIN 1376 -256 In
FLAG 1376 -224 Q0
IOPIN 1376 -224 In
FLAG 1600 -144 clock
IOPIN 1600 -144 In
FLAG 2464 -160 clock
IOPIN 2464 -160 In
FLAG 1984 -464 Q2
IOPIN 1984 -464 In
FLAG 1984 -432 NQ1
IOPIN 1984 -432 In
FLAG 1984 -352 Q2
IOPIN 1984 -352 In
FLAG 1984 -320 NQ0
IOPIN 1984 -320 In
FLAG 1984 -592 Q0
IOPIN 1984 -592 In
FLAG 1984 -560 Q1
IOPIN 1984 -560 In
FLAG 2144 -640 NQ2
IOPIN 2144 -640 In
SYMBOL 74HCxx\\74hc04.i -304 -128 R0
SYMATTR InstName U1
SYMBOL voltage -480 -48 R0
WINDOW 123 0 0 Left 0
WINDOW 39 0 0 Left 0
SYMATTR InstName V2
SYMATTR Value PULSE(0 5 0 1ns 1ns 1ms 4ms)
SYMBOL 74HCxx\\74hc04.i -336 320 R0
SYMATTR InstName U2
SYMBOL voltage -512 400 R0
WINDOW 123 0 0 Left 0
WINDOW 39 0 0 Left 0
SYMATTR InstName V3
SYMATTR Value PULSE(0 5 0 1n 1n 1ms 4ms)
SYMBOL 74HCxx\\74hc04.i -304 -640 R0
SYMATTR InstName U3
SYMBOL voltage -480 -560 R0
WINDOW 123 0 0 Left 0
WINDOW 39 0 0 Left 0
SYMATTR InstName V1
SYMATTR Value PULSE(0 5 0 1n 1n 1ms 4ms)
SYMBOL voltage 224 0 R0
WINDOW 123 0 0 Left 0
WINDOW 39 0 0 Left 0
SYMATTR InstName V4
SYMATTR Value PULSE(0 5 200us 1n 1n 100us 200us)
SYMBOL voltage 224 336 R0
WINDOW 123 0 0 Left 0
WINDOW 39 0 0 Left 0
SYMATTR InstName V5
SYMATTR Value 5V
SYMBOL 74HCxx\\74hc74 1024 -256 R0
SYMATTR InstName U6
SYMBOL 74HCxx\\74hc74 1760 -256 R0
SYMATTR InstName U4
SYMBOL 74HCxx\\74hc74 2624 -272 R0
SYMATTR InstName U5
SYMBOL 74HCxx\\74hc32 1616 -352 R0
SYMATTR InstName U9
SYMBOL 74HCxx\\74hc32 2432 -368 R0
SYMATTR InstName U10
SYMBOL 74HCxx\\74hc08 1472 -416 R0
SYMATTR InstName U7
SYMBOL 74HCxx\\74hc08 1472 -304 R0
SYMATTR InstName U8
SYMBOL 74HCxx\\74hc08 2080 -512 R0
SYMATTR InstName U11
SYMBOL 74HCxx\\74hc08 2080 -400 R0
SYMATTR InstName U12
SYMBOL 74HCxx\\74hc08 2080 -640 R0
SYMATTR InstName U13
SYMBOL 74HCxx\\74hc32 2288 -544 R0
SYMATTR InstName U14
SYMBOL 74HCxx\\74hc08 2192 -656 R0
SYMATTR InstName U15
TEXT -520 -344 Left 2 !.tran 20ms
TEXT -520 -320 Left 2 !.include 74hc.lib
