Version 4
SHEET 1 880 680
WIRE -464 -160 -480 -160
WIRE -480 -80 -480 -160
WIRE -352 -80 -480 -80
WIRE -192 -80 -240 -80
WIRE -480 -32 -480 -80
WIRE -480 144 -480 48
FLAG -480 144 0
FLAG -464 -160 a
IOPIN -464 -160 Out
FLAG -192 -80 /a
IOPIN -192 -80 Out
SYMBOL 74HCxx\\74hc04.i -304 -128 R0
SYMATTR InstName U1
SYMBOL voltage -480 -48 R0
WINDOW 123 0 0 Left 0
WINDOW 39 0 0 Left 0
SYMATTR InstName V1
SYMATTR Value PULSE(0 5 0 0 0 1ms 4ms)
TEXT -520 168 Left 2 !.tran 10ms
TEXT -520 192 Left 2 !.include 74hc.lib
